s_527____153905____156108	153.181	11	1.418	2	1	2	0.375	42.240	True		True	True			S	NJVSUHKJPNTYGL-UHFFFAOYSA-N
 OpenBabel01202514343D
Schrodinger Suite 2023-4.
 22 22  0  0  1  0  0  0  0  0999 V2000
   -0.5156   -0.4867    1.2416 C   0  0  0  0  0  0  0  0  0  0  0  0
   -0.0040   -0.0170   -0.1295 C   0  0  0  0  0  0  0  0  0  0  0  0
   -0.5535   -0.8876   -1.2674 C   0  0  0  0  0  0  0  0  0  0  0  0
    1.4555   -0.0371   -0.1641 N   0  0  0  0  0  0  0  0  0  0  0  0
    2.2597    0.9323    0.3015 C   0  0  0  0  0  0  0  0  0  0  0  0
    1.8444    1.9686    0.8199 O   0  0  0  0  0  0  0  0  0  0  0  0
    3.7078    0.6872    0.1616 C   0  0  0  0  0  0  0  0  0  0  0  0
    4.4020   -0.3678   -0.3708 C   0  0  0  0  0  0  0  0  0  0  0  0
    5.7832   -0.0576   -0.2335 C   0  0  0  0  0  0  0  0  0  0  0  0
    5.8350    1.1646    0.3725 C   0  0  0  0  0  0  0  0  0  0  0  0
    4.5809    1.6315    0.6191 O   0  0  0  0  0  0  0  0  0  0  0  0
   -1.6052   -0.4732    1.2779 H   0  0  0  0  0  0  0  0  0  0  0  0
   -0.1543    0.1593    2.0425 H   0  0  0  0  0  0  0  0  0  0  0  0
   -0.1886   -1.5037    1.4605 H   0  0  0  0  0  0  0  0  0  0  0  0
   -0.3493    1.0048   -0.2976 H   0  0  0  0  0  0  0  0  0  0  0  0
   -1.6435   -0.8659   -1.2847 H   0  0  0  0  0  0  0  0  0  0  0  0
   -0.2434   -1.9275   -1.1586 H   0  0  0  0  0  0  0  0  0  0  0  0
   -0.2028   -0.5345   -2.2379 H   0  0  0  0  0  0  0  0  0  0  0  0
    1.8893   -0.8517   -0.5734 H   0  0  0  0  0  0  0  0  0  0  0  0
    3.9705   -1.2569   -0.8068 H   0  0  0  0  0  0  0  0  0  0  0  0
    6.6310   -0.6528   -0.5391 H   0  0  0  0  0  0  0  0  0  0  0  0
    6.6394    1.8141    0.6851 H   0  0  0  0  0  0  0  0  0  0  0  0
  1  2  1  0  0  0  0
  1 12  1  0  0  0  0
  1 13  1  0  0  0  0
  1 14  1  0  0  0  0
  2  3  1  0  0  0  0
  2  4  1  0  0  0  0
  2 15  1  0  0  0  0
  3 16  1  0  0  0  0
  3 17  1  0  0  0  0
  3 18  1  0  0  0  0
  4  5  1  0  0  0  0
  4 19  1  0  0  0  0
  5  6  2  0  0  0  0
  5  7  1  0  0  0  0
  7  8  2  0  0  0  0
  7 11  1  0  0  0  0
  8  9  1  0  0  0  0
  8 20  1  0  0  0  0
  9 10  2  0  0  0  0
  9 21  1  0  0  0  0
 10 11  1  0  0  0  0
 10 22  1  0  0  0  0
M  END
>  <i_epik_Tot_Q>
0

>  <i_epik_Tot_abs_Q>
0

>  <i_f3d_flags>
0

>  <i_lp_mmshare_version>
64135

>  <i_m_source_file_index>
1

>  <b_lp_Chiralities_Consistent>
1

>  <r_epik_Charging_Adjusted_Penalty>
0

>  <r_epik_Ionization_Penalty>
1.01036e-06

>  <r_epik_Ionization_Penalty_Charging>
0

>  <r_epik_Ionization_Penalty_Neutral>
1.01036e-06

>  <r_epik_State_Penalty>
-0

>  <r_lp_Energy>
2.7082

>  <r_lp_tautomer_probability>
1

>  <s_epik_cmdline>
J2VwaWtfcHl0aG9uJywgJy1waHQnLCAnMC41JywgJy1waCcsICc3LjAnLCAnLXRuJywgJzgnLCAnLW1hJywgJzIwMCcsICctaW1hZScsICc8aW5maWxlLm1hZT4nLCAnLW9tYWUnLCAnPG91dGZpbGUubWFlPic=

>  <s_epik_input>
W0NIM11bQ0hdKFtDSDNdKVtOSF1DKD1PKWMxW2NIXVtjSF1bY0hdbzE=

>  <s_lp_Force_Field>
OPLS_2005

>  <s_lp_Variant>
s_527____153905____156108	153.181	11	1.418	2	1	2	0.375	42.240	True		True	True			S	NJVSUHKJPNTYGL-UHFFFAOYSA-N-1

>  <s_m_source_file>
2024.01_Enamine_REAL_DB_6.8M.smi

$$$$
m_22____57676____19882710	179.647	11	0.766	2	1	4	0.857	38.330	True						M	JPZAHQNIVFLHMM-UHFFFAOYSA-N
 OpenBabel01202514343D
Schrodinger Suite 2023-4.
 25 24  0  0  1  0  0  0  0  0999 V2000
   -0.4968    3.6965    0.4345 C   0  0  0  0  0  0  0  0  0  0  0  0
   -0.0600    2.4297    0.8940 O   0  0  0  0  0  0  0  0  0  0  0  0
   -0.5177    1.3671    0.0734 C   0  0  0  0  0  0  0  0  0  0  0  0
    0.0130    0.0356    0.6245 C   0  0  0  0  0  0  0  0  0  0  0  0
    1.4678   -0.0362    0.5483 N   0  0  0  0  0  0  0  0  0  0  0  0
    2.1748   -0.3427   -0.5522 C   0  0  0  0  0  0  0  0  0  0  0  0
    1.6358   -0.6196   -1.6247 O   0  0  0  0  0  0  0  0  0  0  0  0
    3.7156   -0.3380   -0.4542 C   0  0  0  0  0  0  0  0  0  0  0  0
    4.2654   -1.7402   -0.7709 C   0  0  0  0  0  0  0  0  0  0  0  0
    4.2985    0.7009   -1.4289 C   0  0  0  0  0  0  0  0  0  0  0  0
    4.2632    0.0995    1.1953 Cl  0  0  0  0  0  0  0  0  0  0  0  0
   -0.1235    4.4758    1.0987 H   0  0  0  0  0  0  0  0  0  0  0  0
   -1.5858    3.7579    0.4218 H   0  0  0  0  0  0  0  0  0  0  0  0
   -0.1226    3.9020   -0.5694 H   0  0  0  0  0  0  0  0  0  0  0  0
   -1.6084    1.3523    0.0699 H   0  0  0  0  0  0  0  0  0  0  0  0
   -0.1927    1.5122   -0.9582 H   0  0  0  0  0  0  0  0  0  0  0  0
   -0.2872   -0.0829    1.6659 H   0  0  0  0  0  0  0  0  0  0  0  0
   -0.4287   -0.7999    0.0792 H   0  0  0  0  0  0  0  0  0  0  0  0
    1.9793    0.1833    1.3911 H   0  0  0  0  0  0  0  0  0  0  0  0
    4.0069   -2.0566   -1.7823 H   0  0  0  0  0  0  0  0  0  0  0  0
    3.8720   -2.4866   -0.0793 H   0  0  0  0  0  0  0  0  0  0  0  0
    5.3527   -1.7624   -0.6907 H   0  0  0  0  0  0  0  0  0  0  0  0
    4.0329    0.4786   -2.4631 H   0  0  0  0  0  0  0  0  0  0  0  0
    5.3872    0.7257   -1.3707 H   0  0  0  0  0  0  0  0  0  0  0  0
    3.9362    1.7045   -1.2021 H   0  0  0  0  0  0  0  0  0  0  0  0
  1  2  1  0  0  0  0
  1 12  1  0  0  0  0
  1 13  1  0  0  0  0
  1 14  1  0  0  0  0
  2  3  1  0  0  0  0
  3  4  1  0  0  0  0
  3 15  1  0  0  0  0
  3 16  1  0  0  0  0
  4  5  1  0  0  0  0
  4 17  1  0  0  0  0
  4 18  1  0  0  0  0
  5  6  1  0  0  0  0
  5 19  1  0  0  0  0
  6  7  2  0  0  0  0
  6  8  1  0  0  0  0
  8  9  1  0  0  0  0
  8 10  1  0  0  0  0
  8 11  1  0  0  0  0
  9 20  1  0  0  0  0
  9 21  1  0  0  0  0
  9 22  1  0  0  0  0
 10 23  1  0  0  0  0
 10 24  1  0  0  0  0
 10 25  1  0  0  0  0
M  END
>  <i_epik_Tot_Q>
0

>  <i_epik_Tot_abs_Q>
0

>  <i_f3d_flags>
0

>  <i_lp_mmshare_version>
64135

>  <i_m_source_file_index>
2

>  <b_lp_Chiralities_Consistent>
1

>  <r_epik_Charging_Adjusted_Penalty>
0

>  <r_epik_Ionization_Penalty>
9.56107e-07

>  <r_epik_Ionization_Penalty_Charging>
0

>  <r_epik_Ionization_Penalty_Neutral>
9.56107e-07

>  <r_epik_State_Penalty>
-0

>  <r_lp_Energy>
3.69486

>  <r_lp_tautomer_probability>
1

>  <s_epik_cmdline>
J2VwaWtfcHl0aG9uJywgJy1waHQnLCAnMC41JywgJy1waCcsICc3LjAnLCAnLXRuJywgJzgnLCAnLW1hJywgJzIwMCcsICctaW1hZScsICc8aW5maWxlLm1hZT4nLCAnLW9tYWUnLCAnPG91dGZpbGUubWFlPic=

>  <s_epik_input>
W0NIM11PW0NIMl1bQ0gyXVtOSF1DKD1PKUMoQ2wpKFtDSDNdKVtDSDNd

>  <s_lp_Force_Field>
OPLS_2005

>  <s_lp_Variant>
m_22____57676____19882710	179.647	11	0.766	2	1	4	0.857	38.330	True						M	JPZAHQNIVFLHMM-UHFFFAOYSA-N-1

>  <s_m_source_file>
2024.01_Enamine_REAL_DB_6.8M.smi

$$$$
m_271302____8904550____25575944	158.245	11	0.056	3	1	4	1.000	38.490	True						M	MOEPNVYHZMLGIH-UHFFFAOYSA-N
 OpenBabel01202514343D
Schrodinger Suite 2023-4.
 31 31  0  0  1  0  0  0  0  0999 V2000
   -0.6459    1.2540   -0.2047 C   0  0  0  0  0  0  0  0  0  0  0  0
   -0.0677    0.0029    0.1376 O   0  0  0  0  0  0  0  0  0  0  0  0
    1.3508   -0.0362    0.0368 C   0  0  2  0  0  0  0  0  0  0  0  0
    1.7253   -1.5070   -0.2224 C   0  0  0  0  0  0  0  0  0  0  0  0
    1.2247   -1.9723   -1.5285 N   0  3  0  0  0  0  0  0  0  0  0  0
    1.9640    0.4957    1.3531 C   0  0  0  0  0  0  0  0  0  0  0  0
    3.4449    0.5793    1.3124 N   0  3  0  0  0  0  0  0  0  0  0  0
    3.9961    1.6052    0.4054 C   0  0  0  0  0  0  0  0  0  0  0  0
    5.4405    1.8162    0.8629 C   0  0  0  0  0  0  0  0  0  0  0  0
    5.4729    1.3672    2.3284 C   0  0  0  0  0  0  0  0  0  0  0  0
    4.0694    0.8288    2.6260 C   0  0  0  0  0  0  0  0  0  0  0  0
   -1.7299    1.1896   -0.1107 H   0  0  0  0  0  0  0  0  0  0  0  0
   -0.4180    1.5231   -1.2368 H   0  0  0  0  0  0  0  0  0  0  0  0
   -0.3036    2.0563    0.4486 H   0  0  0  0  0  0  0  0  0  0  0  0
    1.6810    0.5681   -0.8100 H   0  0  0  0  0  0  0  0  0  0  0  0
    2.8083   -1.6331   -0.2178 H   0  0  0  0  0  0  0  0  0  0  0  0
    1.3249   -2.1499    0.5624 H   0  0  0  0  0  0  0  0  0  0  0  0
    1.4766   -2.9415   -1.6627 H   0  0  0  0  0  0  0  0  0  0  0  0
    1.6277   -1.4155   -2.2688 H   0  0  0  0  0  0  0  0  0  0  0  0
    1.5679    1.4816    1.5973 H   0  0  0  0  0  0  0  0  0  0  0  0
    1.6707   -0.1614    2.1732 H   0  0  0  0  0  0  0  0  0  0  0  0
    3.9373    1.3023   -0.6402 H   0  0  0  0  0  0  0  0  0  0  0  0
    3.4361    2.5349    0.5204 H   0  0  0  0  0  0  0  0  0  0  0  0
    6.1151    1.1937    0.2734 H   0  0  0  0  0  0  0  0  0  0  0  0
    5.7577    2.8522    0.7389 H   0  0  0  0  0  0  0  0  0  0  0  0
    6.2211    0.5852    2.4633 H   0  0  0  0  0  0  0  0  0  0  0  0
    5.7313    2.1871    2.9997 H   0  0  0  0  0  0  0  0  0  0  0  0
    4.0893   -0.0735    3.2382 H   0  0  0  0  0  0  0  0  0  0  0  0
    3.4967    1.5863    3.1641 H   0  0  0  0  0  0  0  0  0  0  0  0
    3.8003   -0.3124    0.9982 H   0  0  0  0  0  0  0  0  0  0  0  0
    0.2183   -1.8835   -1.5529 H   0  0  0  0  0  0  0  0  0  0  0  0
  1  2  1  0  0  0  0
  1 12  1  0  0  0  0
  1 13  1  0  0  0  0
  1 14  1  0  0  0  0
  2  3  1  0  0  0  0
  3  4  1  0  0  0  0
  3  6  1  0  0  0  0
  3 15  1  6  0  0  0
  4  5  1  0  0  0  0
  4 16  1  0  0  0  0
  4 17  1  0  0  0  0
  5 18  1  0  0  0  0
  5 19  1  0  0  0  0
  5 31  1  0  0  0  0
  6  7  1  0  0  0  0
  6 20  1  0  0  0  0
  6 21  1  0  0  0  0
  7  8  1  0  0  0  0
  7 11  1  0  0  0  0
  7 30  1  0  0  0  0
  8  9  1  0  0  0  0
  8 22  1  0  0  0  0
  8 23  1  0  0  0  0
  9 10  1  0  0  0  0
  9 24  1  0  0  0  0
  9 25  1  0  0  0  0
 10 11  1  0  0  0  0
 10 26  1  0  0  0  0
 10 27  1  0  0  0  0
 11 28  1  0  0  0  0
 11 29  1  0  0  0  0
M  CHG  2   5   1   7   1
M  END
>  <i_epik_Tot_Q>
2

>  <i_epik_Tot_abs_Q>
2

>  <i_f3d_flags>
0

>  <i_lp_mmshare_version>
64135

>  <i_m_source_file_index>
3

>  <b_lp_Chiralities_Consistent>
1

>  <r_epik_Charging_Adjusted_Penalty>
0.144321

>  <r_epik_Ionization_Penalty>
0.0729447

>  <r_epik_Ionization_Penalty_Charging>
0.0729447

>  <r_epik_Ionization_Penalty_Neutral>
3.81519e-15

>  <r_epik_State_Penalty>
0.0713763

>  <r_lp_Energy>
38.1839

>  <s_epik_cmdline>
J2VwaWtfcHl0aG9uJywgJy1waHQnLCAnMC41JywgJy1waCcsICc3LjAnLCAnLXRuJywgJzgnLCAnLW1hJywgJzIwMCcsICctaW1hZScsICc8aW5maWxlLm1hZT4nLCAnLW9tYWUnLCAnPG91dGZpbGUubWFlPic=

>  <s_epik_input>
W0NIM11PW0NASF0oW0NIMl1bTkgyXSlbQ0gyXU4xW0NIMl1bQ0gyXVtDSDJdW0NIMl0x

>  <s_lp_Force_Field>
OPLS_2005

>  <s_lp_Variant>
m_271302____8904550____25575944	158.245	11	0.056	3	1	4	1.000	38.490	True						M	MOEPNVYHZMLGIH-UHFFFAOYSA-N-1

>  <s_m_source_file>
2024.01_Enamine_REAL_DB_6.8M.smi

$$$$
m_276436____14076548____23408838	199.077	11	2.379	2	0	4	0.857	26.300	True					True	M	ZQNMXDTWADSSJO-UHFFFAOYSA-N
 OpenBabel01202514343D
Schrodinger Suite 2023-4.
 23 22  0  0  1  0  0  0  0  0999 V2000
   -0.5548   -0.8004   -1.1283 C   0  0  0  0  0  0  0  0  0  0  0  0
    0.0713    0.0247    0.0074 C   0  0  0  0  0  0  0  0  0  0  0  0
   -0.5899    1.4064    0.1053 C   0  0  0  0  0  0  0  0  0  0  0  0
    1.5928    0.1624   -0.1618 C   0  0  0  0  0  0  0  0  0  0  0  0
    2.2145   -1.1067   -0.0359 O   0  0  0  0  0  0  0  0  0  0  0  0
    3.5486   -1.2082   -0.1508 C   0  0  0  0  0  0  0  0  0  0  0  0
    4.3267   -0.2802   -0.3732 O   0  0  0  0  0  0  0  0  0  0  0  0
    4.0484   -2.6436    0.0132 C   0  0  0  0  0  0  0  0  0  0  0  0
    3.7679   -3.2240    1.4102 C   0  0  0  0  0  0  0  0  0  0  0  0
    4.1891   -4.9546    1.4298 Cl  0  0  0  0  0  0  0  0  0  0  0  0
    4.7044   -2.3592    2.6590 Cl  0  0  0  0  0  0  0  0  0  0  0  0
   -0.3874   -0.3301   -2.0978 H   0  0  0  0  0  0  0  0  0  0  0  0
   -1.6312   -0.9046   -0.9900 H   0  0  0  0  0  0  0  0  0  0  0  0
   -0.1331   -1.8051   -1.1692 H   0  0  0  0  0  0  0  0  0  0  0  0
   -0.1181   -0.4953    0.9475 H   0  0  0  0  0  0  0  0  0  0  0  0
   -0.4361    1.9851   -0.8062 H   0  0  0  0  0  0  0  0  0  0  0  0
   -0.1799    1.9802    0.9369 H   0  0  0  0  0  0  0  0  0  0  0  0
   -1.6648    1.3177    0.2662 H   0  0  0  0  0  0  0  0  0  0  0  0
    1.8284    0.6011   -1.1325 H   0  0  0  0  0  0  0  0  0  0  0  0
    1.9923    0.8304    0.6029 H   0  0  0  0  0  0  0  0  0  0  0  0
    3.5559   -3.2555   -0.7429 H   0  0  0  0  0  0  0  0  0  0  0  0
    5.1169   -2.6810   -0.2012 H   0  0  0  0  0  0  0  0  0  0  0  0
    2.7125   -3.1461    1.6739 H   0  0  0  0  0  0  0  0  0  0  0  0
  1  2  1  0  0  0  0
  1 12  1  0  0  0  0
  1 13  1  0  0  0  0
  1 14  1  0  0  0  0
  2  3  1  0  0  0  0
  2  4  1  0  0  0  0
  2 15  1  0  0  0  0
  3 16  1  0  0  0  0
  3 17  1  0  0  0  0
  3 18  1  0  0  0  0
  4  5  1  0  0  0  0
  4 19  1  0  0  0  0
  4 20  1  0  0  0  0
  5  6  1  0  0  0  0
  6  7  2  0  0  0  0
  6  8  1  0  0  0  0
  8  9  1  0  0  0  0
  8 21  1  0  0  0  0
  8 22  1  0  0  0  0
  9 10  1  0  0  0  0
  9 11  1  0  0  0  0
  9 23  1  0  0  0  0
M  END
>  <i_epik_Tot_Q>
0

>  <i_epik_Tot_abs_Q>
0

>  <i_f3d_flags>
0

>  <i_lp_mmshare_version>
64135

>  <i_m_source_file_index>
4

>  <b_lp_Chiralities_Consistent>
1

>  <r_epik_Charging_Adjusted_Penalty>
0

>  <r_epik_Ionization_Penalty>
0

>  <r_epik_Ionization_Penalty_Charging>
0

>  <r_epik_Ionization_Penalty_Neutral>
0

>  <r_epik_State_Penalty>
-0

>  <r_lp_Energy>
2.63527

>  <r_lp_tautomer_probability>
1

>  <s_epik_Chemistry_Notes>
This compound has an ester and may undergo hydrolysis at high or low pH.

>  <s_epik_cmdline>
J2VwaWtfcHl0aG9uJywgJy1waHQnLCAnMC41JywgJy1waCcsICc3LjAnLCAnLXRuJywgJzgnLCAnLW1hJywgJzIwMCcsICctaW1hZScsICc8aW5maWxlLm1hZT4nLCAnLW9tYWUnLCAnPG91dGZpbGUubWFlPic=

>  <s_epik_input>
W0NIM11bQ0hdKFtDSDNdKVtDSDJdT0MoPU8pW0NIMl1bQ0hdKENsKUNs

>  <s_lp_Force_Field>
OPLS_2005

>  <s_lp_Variant>
m_276436____14076548____23408838	199.077	11	2.379	2	0	4	0.857	26.300	True					True	M	ZQNMXDTWADSSJO-UHFFFAOYSA-N-1

>  <s_m_source_file>
2024.01_Enamine_REAL_DB_6.8M.smi

$$$$
s_62____875850____8349548	170.252	11	3.019	1	0	3	0.333	0.000	True						S	LXQJVNFOCBJMGN-UHFFFAOYSA-N
 OpenBabel01202514343D
Schrodinger Suite 2023-4.
 22 22  0  0  1  0  0  0  0  0999 V2000
   -0.0132    1.8787   -0.2792 C   0  0  0  0  0  0  0  0  0  0  0  0
    0.0603    0.1503    0.2642 S   0  0  0  0  0  0  0  0  0  0  0  0
    1.8442   -0.1737    0.1425 C   0  0  0  0  0  0  0  0  0  0  0  0
    2.3079   -0.0975   -1.3005 C   0  0  0  0  0  0  0  0  0  0  0  0
    1.9976   -1.1402   -2.1981 C   0  0  0  0  0  0  0  0  0  0  0  0
    2.4220   -1.0707   -3.5391 C   0  0  0  0  0  0  0  0  0  0  0  0
    3.1617    0.0414   -3.9910 C   0  0  0  0  0  0  0  0  0  0  0  0
    3.6164    0.1174   -5.4343 C   0  0  0  0  0  0  0  0  0  0  0  0
    2.7099    0.7568   -6.1723 F   0  0  0  0  0  0  0  0  0  0  0  0
    3.4725    1.0845   -3.0945 C   0  0  0  0  0  0  0  0  0  0  0  0
    3.0486    1.0146   -1.7532 C   0  0  0  0  0  0  0  0  0  0  0  0
   -1.0320    2.2552   -0.1894 H   0  0  0  0  0  0  0  0  0  0  0  0
    0.2937    1.9710   -1.3208 H   0  0  0  0  0  0  0  0  0  0  0  0
    0.6397    2.4994    0.3345 H   0  0  0  0  0  0  0  0  0  0  0  0
    2.3878    0.5402    0.7622 H   0  0  0  0  0  0  0  0  0  0  0  0
    2.0532   -1.1680    0.5380 H   0  0  0  0  0  0  0  0  0  0  0  0
    1.4294   -1.9944   -1.8601 H   0  0  0  0  0  0  0  0  0  0  0  0
    2.1761   -1.8726   -4.2199 H   0  0  0  0  0  0  0  0  0  0  0  0
    4.5593    0.6581   -5.5225 H   0  0  0  0  0  0  0  0  0  0  0  0
    3.7498   -0.8777   -5.8597 H   0  0  0  0  0  0  0  0  0  0  0  0
    4.0350    1.9422   -3.4332 H   0  0  0  0  0  0  0  0  0  0  0  0
    3.2892    1.8201   -1.0750 H   0  0  0  0  0  0  0  0  0  0  0  0
  1  2  1  0  0  0  0
  1 12  1  0  0  0  0
  1 13  1  0  0  0  0
  1 14  1  0  0  0  0
  2  3  1  0  0  0  0
  3  4  1  0  0  0  0
  3 15  1  0  0  0  0
  3 16  1  0  0  0  0
  4  5  2  0  0  0  0
  4 11  1  0  0  0  0
  5  6  1  0  0  0  0
  5 17  1  0  0  0  0
  6  7  2  0  0  0  0
  6 18  1  0  0  0  0
  7  8  1  0  0  0  0
  7 10  1  0  0  0  0
  8  9  1  0  0  0  0
  8 19  1  0  0  0  0
  8 20  1  0  0  0  0
 10 11  2  0  0  0  0
 10 21  1  0  0  0  0
 11 22  1  0  0  0  0
M  END
>  <i_epik_Tot_Q>
0

>  <i_epik_Tot_abs_Q>
0

>  <i_f3d_flags>
0

>  <i_lp_mmshare_version>
64135

>  <i_m_source_file_index>
5

>  <b_lp_Chiralities_Consistent>
1

>  <r_epik_Charging_Adjusted_Penalty>
0

>  <r_epik_Ionization_Penalty>
0

>  <r_epik_Ionization_Penalty_Charging>
0

>  <r_epik_Ionization_Penalty_Neutral>
0

>  <r_epik_State_Penalty>
-0

>  <r_lp_Energy>
4.21011

>  <r_lp_tautomer_probability>
1

>  <s_epik_cmdline>
J2VwaWtfcHl0aG9uJywgJy1waHQnLCAnMC41JywgJy1waCcsICc3LjAnLCAnLXRuJywgJzgnLCAnLW1hJywgJzIwMCcsICctaW1hZScsICc8aW5maWxlLm1hZT4nLCAnLW9tYWUnLCAnPG91dGZpbGUubWFlPic=

>  <s_epik_input>
W0NIM11TW0NIMl1jMVtjSF1bY0hdYyhbQ0gyXUYpW2NIXVtjSF0x

>  <s_lp_Force_Field>
OPLS_2005

>  <s_lp_Variant>
s_62____875850____8349548	170.252	11	3.019	1	0	3	0.333	0.000	True						S	LXQJVNFOCBJMGN-UHFFFAOYSA-N-1

>  <s_m_source_file>
2024.01_Enamine_REAL_DB_6.8M.smi

$$$$
m_22____57744____13570734	157.213	11	0.403	2	1	4	0.625	40.540	True					True	M	XBNCGGGNWBNXBB-UHFFFAOYSA-N
 OpenBabel01202514343D
Schrodinger Suite 2023-4.
 26 25  0  0  1  0  0  0  0  0999 V2000
   -2.3871   -1.5231   -1.5598 C   0  0  0  0  0  0  0  0  0  0  0  0
   -1.9316   -1.5696   -0.0931 C   0  0  0  0  0  0  0  0  0  0  0  0
   -0.4770   -1.3823    0.0331 N   0  0  0  0  0  0  0  0  0  0  0  0
    0.2676   -2.6478    0.1591 C   0  0  0  0  0  0  0  0  0  0  0  0
    0.5693   -2.9906    1.6267 C   0  0  0  0  0  0  0  0  0  0  0  0
    0.0594   -0.1296   -0.0012 C   0  0  0  0  0  0  0  0  0  0  0  0
   -0.6515    0.8672   -0.1508 O   0  0  0  0  0  0  0  0  0  0  0  0
    1.5100   -0.0477    0.1599 C   0  0  0  0  0  0  0  0  0  0  0  0
    2.1625    1.1091   -0.0758 C   0  0  0  0  0  0  0  0  0  0  0  0
    3.6590    1.3407    0.0557 C   0  0  0  0  0  0  0  0  0  0  0  0
    4.3581    0.1861    0.4755 O   0  0  0  0  0  0  0  0  0  0  0  0
   -3.4616   -1.6890   -1.6356 H   0  0  0  0  0  0  0  0  0  0  0  0
   -1.8905   -2.2932   -2.1507 H   0  0  0  0  0  0  0  0  0  0  0  0
   -2.1697   -0.5579   -2.0179 H   0  0  0  0  0  0  0  0  0  0  0  0
   -2.4647   -0.8115    0.4835 H   0  0  0  0  0  0  0  0  0  0  0  0
   -2.2345   -2.5190    0.3509 H   0  0  0  0  0  0  0  0  0  0  0  0
   -0.3071   -3.4639   -0.2811 H   0  0  0  0  0  0  0  0  0  0  0  0
    1.1845   -2.6268   -0.4305 H   0  0  0  0  0  0  0  0  0  0  0  0
    1.1164   -3.9307    1.6977 H   0  0  0  0  0  0  0  0  0  0  0  0
   -0.3518   -3.1008    2.1998 H   0  0  0  0  0  0  0  0  0  0  0  0
    1.1703   -2.2222    2.1120 H   0  0  0  0  0  0  0  0  0  0  0  0
    2.0875   -0.8997    0.4782 H   0  0  0  0  0  0  0  0  0  0  0  0
    1.6090    1.9821   -0.3925 H   0  0  0  0  0  0  0  0  0  0  0  0
    4.0550    1.6669   -0.9063 H   0  0  0  0  0  0  0  0  0  0  0  0
    3.8341    2.1439    0.7719 H   0  0  0  0  0  0  0  0  0  0  0  0
    5.2771    0.3975    0.5384 H   0  0  0  0  0  0  0  0  0  0  0  0
  1  2  1  0  0  0  0
  1 12  1  0  0  0  0
  1 13  1  0  0  0  0
  1 14  1  0  0  0  0
  2  3  1  0  0  0  0
  2 15  1  0  0  0  0
  2 16  1  0  0  0  0
  3  4  1  0  0  0  0
  3  6  1  0  0  0  0
  4  5  1  0  0  0  0
  4 17  1  0  0  0  0
  4 18  1  0  0  0  0
  5 19  1  0  0  0  0
  5 20  1  0  0  0  0
  5 21  1  0  0  0  0
  6  7  2  0  0  0  0
  6  8  1  0  0  0  0
  8  9  2  3  0  0  0
  8 22  1  0  0  0  0
  9 10  1  0  0  0  0
  9 23  1  0  0  0  0
 10 11  1  0  0  0  0
 10 24  1  0  0  0  0
 10 25  1  0  0  0  0
 11 26  1  0  0  0  0
M  END
>  <i_epik_Tot_Q>
0

>  <i_epik_Tot_abs_Q>
0

>  <i_f3d_flags>
0

>  <i_lp_mmshare_version>
64135

>  <i_m_source_file_index>
6

>  <b_lp_Chiralities_Consistent>
1

>  <r_epik_Charging_Adjusted_Penalty>
0

>  <r_epik_Ionization_Penalty>
3.32305e-05

>  <r_epik_Ionization_Penalty_Charging>
0

>  <r_epik_Ionization_Penalty_Neutral>
3.32305e-05

>  <r_epik_State_Penalty>
-0

>  <r_lp_Energy>
14.8998

>  <r_lp_tautomer_probability>
1

>  <s_epik_cmdline>
J2VwaWtfcHl0aG9uJywgJy1waHQnLCAnMC41JywgJy1waCcsICc3LjAnLCAnLXRuJywgJzgnLCAnLW1hJywgJzIwMCcsICctaW1hZScsICc8aW5maWxlLm1hZT4nLCAnLW9tYWUnLCAnPG91dGZpbGUubWFlPic=

>  <s_epik_input>
W0NIM11bQ0gyXU4oW0NIMl1bQ0gzXSlDKD1PKS9bQ0hdPVtDSF0vW0NIMl1bT0hd

>  <s_lp_Force_Field>
OPLS_2005

>  <s_lp_Variant>
m_22____57744____13570734	157.213	11	0.403	2	1	4	0.625	40.540	True					True	M	XBNCGGGNWBNXBB-UHFFFAOYSA-N-1

>  <s_m_source_file>
2024.01_Enamine_REAL_DB_6.8M.smi

$$$$
m_271302____25517132____25492046	158.245	11	-0.291	3	3	4	1.000	44.290	True					True	M	HKYVXLURLQGUSW-JAMMHHFISA-N
 OpenBabel01202514343D
Schrodinger Suite 2023-4.
 30 30  0  0  1  0  0  0  0  0999 V2000
   -2.8262   -2.0955    2.9251 C   0  0  0  0  0  0  0  0  0  0  0  0
   -2.4117   -2.4112    1.4825 C   0  0  0  0  0  0  0  0  0  0  0  0
   -1.9769   -1.1653    0.6918 C   0  0  1  0  0  0  0  0  0  0  0  0
   -0.6982   -0.4957    1.2042 C   0  0  0  0  0  0  0  0  0  0  0  0
   -0.0841    0.1975   -0.0243 C   0  0  1  0  0  0  0  0  0  0  0  0
    1.3579   -0.0480   -0.0941 N   0  0  0  0  0  0  0  0  0  0  0  0
    2.0563    0.7037   -1.1372 C   0  0  0  0  0  0  0  0  0  0  0  0
    3.5630    0.4128   -1.1158 C   0  0  0  0  0  0  0  0  0  0  0  0
    3.8404   -0.7379   -1.8846 O   0  0  0  0  0  0  0  0  0  0  0  0
   -0.8502   -0.3829   -1.2316 C   0  0  0  0  0  0  0  0  0  0  0  0
   -1.6724   -1.4863   -0.7097 N   0  3  0  0  0  0  0  0  0  0  0  0
   -3.1581   -2.9980    3.4387 H   0  0  0  0  0  0  0  0  0  0  0  0
   -3.6468   -1.3779    2.9516 H   0  0  0  0  0  0  0  0  0  0  0  0
   -1.9963   -1.6784    3.4957 H   0  0  0  0  0  0  0  0  0  0  0  0
   -1.6080   -3.1489    1.4888 H   0  0  0  0  0  0  0  0  0  0  0  0
   -3.2535   -2.8833    0.9745 H   0  0  0  0  0  0  0  0  0  0  0  0
   -2.7850   -0.4318    0.6857 H   0  0  0  0  0  0  0  0  0  0  0  0
   -0.8980    0.2051    2.0155 H   0  0  0  0  0  0  0  0  0  0  0  0
   -0.0188   -1.2560    1.5944 H   0  0  0  0  0  0  0  0  0  0  0  0
   -0.2741    1.2698    0.0399 H   0  0  0  0  0  0  0  0  0  0  0  0
    1.7839    0.1501    0.8061 H   0  0  0  0  0  0  0  0  0  0  0  0
    1.6454    0.5029   -2.1267 H   0  0  0  0  0  0  0  0  0  0  0  0
    1.9103    1.7694   -0.9569 H   0  0  0  0  0  0  0  0  0  0  0  0
    4.1046    1.2463   -1.5640 H   0  0  0  0  0  0  0  0  0  0  0  0
    3.9413    0.2944   -0.0995 H   0  0  0  0  0  0  0  0  0  0  0  0
    4.7741   -0.8849   -1.8799 H   0  0  0  0  0  0  0  0  0  0  0  0
   -1.5111    0.3769   -1.6505 H   0  0  0  0  0  0  0  0  0  0  0  0
   -0.2106   -0.7458   -2.0363 H   0  0  0  0  0  0  0  0  0  0  0  0
   -2.5112   -1.6195   -1.2563 H   0  0  0  0  0  0  0  0  0  0  0  0
   -1.1140   -2.3278   -0.7258 H   0  0  0  0  0  0  0  0  0  0  0  0
  1  2  1  0  0  0  0
  1 12  1  0  0  0  0
  1 13  1  0  0  0  0
  1 14  1  0  0  0  0
  2  3  1  0  0  0  0
  2 15  1  0  0  0  0
  2 16  1  0  0  0  0
  3  4  1  0  0  0  0
  3 11  1  0  0  0  0
  3 17  1  1  0  0  0
  4  5  1  0  0  0  0
  4 18  1  0  0  0  0
  4 19  1  0  0  0  0
  5  6  1  0  0  0  0
  5 10  1  0  0  0  0
  5 20  1  1  0  0  0
  6  7  1  0  0  0  0
  6 21  1  0  0  0  0
  7  8  1  0  0  0  0
  7 22  1  0  0  0  0
  7 23  1  0  0  0  0
  8  9  1  0  0  0  0
  8 24  1  0  0  0  0
  8 25  1  0  0  0  0
  9 26  1  0  0  0  0
 10 11  1  0  0  0  0
 10 27  1  0  0  0  0
 10 28  1  0  0  0  0
 11 29  1  0  0  0  0
 11 30  1  0  0  0  0
M  CHG  1  11   1
M  END
>  <i_epik_Tot_Q>
1

>  <i_epik_Tot_abs_Q>
1

>  <i_f3d_flags>
0

>  <i_lp_mmshare_version>
64135

>  <i_m_source_file_index>
7

>  <b_lp_Chiralities_Consistent>
1

>  <r_epik_Charging_Adjusted_Penalty>
0.586176

>  <r_epik_Ionization_Penalty>
0.360092

>  <r_epik_Ionization_Penalty_Charging>
1.83282e-05

>  <r_epik_Ionization_Penalty_Neutral>
0.360074

>  <r_epik_State_Penalty>
0.586157

>  <r_lp_Energy>
29.0111

>  <s_epik_cmdline>
J2VwaWtfcHl0aG9uJywgJy1waHQnLCAnMC41JywgJy1waCcsICc3LjAnLCAnLXRuJywgJzgnLCAnLW1hJywgJzIwMCcsICctaW1hZScsICc8aW5maWxlLm1hZT4nLCAnLW9tYWUnLCAnPG91dGZpbGUubWFlPic=

>  <s_epik_input>
W0NIM11bQ0gyXVtDQEhdMVtDSDJdW0NASF0oW0NIMl1bTkhdMSlbTkhdW0NIMl1bQ0gyXVtPSF0=

>  <s_lp_Force_Field>
OPLS_2005

>  <s_lp_Variant>
m_271302____25517132____25492046	158.245	11	-0.291	3	3	4	1.000	44.290	True					True	M	HKYVXLURLQGUSW-JAMMHHFISA-N-1

>  <s_m_source_file>
2024.01_Enamine_REAL_DB_6.8M.smi

$$$$
m_271302____25517132____25492046	158.245	11	-0.291	3	3	4	1.000	44.290	True					True	M	HKYVXLURLQGUSW-JAMMHHFISA-N
 OpenBabel01202514343D
Schrodinger Suite 2023-4.
 30 30  0  0  1  0  0  0  0  0999 V2000
   -2.5250   -4.2531    0.9353 C   0  0  0  0  0  0  0  0  0  0  0  0
   -1.4269   -3.2990    1.4221 C   0  0  0  0  0  0  0  0  0  0  0  0
   -1.3103   -2.0260    0.5671 C   0  0  1  0  0  0  0  0  0  0  0  0
   -0.3482   -0.9841    1.1366 C   0  0  0  0  0  0  0  0  0  0  0  0
    0.0844   -0.1667   -0.0810 C   0  0  1  0  0  0  0  0  0  0  0  0
    1.5497    0.0327   -0.0911 N   0  3  0  0  0  0  0  0  0  0  0  0
    2.0283    1.0549   -1.0448 C   0  0  0  0  0  0  0  0  0  0  0  0
    3.5566    1.1816   -1.0005 C   0  0  0  0  0  0  0  0  0  0  0  0
    4.1532    0.0275   -1.5532 O   0  0  0  0  0  0  0  0  0  0  0  0
   -0.4060   -0.9964   -1.2782 C   0  0  0  0  0  0  0  0  0  0  0  0
   -0.7215   -2.3068   -0.7327 N   0  0  0  0  0  0  0  0  0  0  0  0
   -2.6021   -5.1209    1.5907 H   0  0  0  0  0  0  0  0  0  0  0  0
   -2.3166   -4.6166   -0.0712 H   0  0  0  0  0  0  0  0  0  0  0  0
   -3.4975   -3.7606    0.9201 H   0  0  0  0  0  0  0  0  0  0  0  0
   -1.6525   -3.0139    2.4504 H   0  0  0  0  0  0  0  0  0  0  0  0
   -0.4705   -3.8227    1.4560 H   0  0  0  0  0  0  0  0  0  0  0  0
   -2.2929   -1.5735    0.4228 H   0  0  0  0  0  0  0  0  0  0  0  0
   -0.8181   -0.3682    1.9042 H   0  0  0  0  0  0  0  0  0  0  0  0
    0.5080   -1.4823    1.5955 H   0  0  0  0  0  0  0  0  0  0  0  0
   -0.4153    0.8032   -0.0708 H   0  0  0  0  0  0  0  0  0  0  0  0
    1.8349    0.3193    0.8343 H   0  0  0  0  0  0  0  0  0  0  0  0
    1.6979    0.8191   -2.0571 H   0  0  0  0  0  0  0  0  0  0  0  0
    1.5792    2.0126   -0.7790 H   0  0  0  0  0  0  0  0  0  0  0  0
    3.8765    2.0453   -1.5839 H   0  0  0  0  0  0  0  0  0  0  0  0
    3.9121    1.3309    0.0197 H   0  0  0  0  0  0  0  0  0  0  0  0
    5.0914    0.1460   -1.5610 H   0  0  0  0  0  0  0  0  0  0  0  0
   -1.3180   -0.5592   -1.6867 H   0  0  0  0  0  0  0  0  0  0  0  0
    0.3197   -1.0739   -2.0880 H   0  0  0  0  0  0  0  0  0  0  0  0
   -1.3642   -2.8095   -1.3290 H   0  0  0  0  0  0  0  0  0  0  0  0
    1.9936   -0.8494   -0.3051 H   0  0  0  0  0  0  0  0  0  0  0  0
  1  2  1  0  0  0  0
  1 12  1  0  0  0  0
  1 13  1  0  0  0  0
  1 14  1  0  0  0  0
  2  3  1  0  0  0  0
  2 15  1  0  0  0  0
  2 16  1  0  0  0  0
  3  4  1  0  0  0  0
  3 11  1  0  0  0  0
  3 17  1  6  0  0  0
  4  5  1  0  0  0  0
  4 18  1  0  0  0  0
  4 19  1  0  0  0  0
  5  6  1  0  0  0  0
  5 10  1  0  0  0  0
  5 20  1  1  0  0  0
  6  7  1  0  0  0  0
  6 21  1  0  0  0  0
  6 30  1  0  0  0  0
  7  8  1  0  0  0  0
  7 22  1  0  0  0  0
  7 23  1  0  0  0  0
  8  9  1  0  0  0  0
  8 24  1  0  0  0  0
  8 25  1  0  0  0  0
  9 26  1  0  0  0  0
 10 11  1  0  0  0  0
 10 27  1  0  0  0  0
 10 28  1  0  0  0  0
 11 29  1  0  0  0  0
M  CHG  1   6   1
M  END
>  <i_epik_Tot_Q>
1

>  <i_epik_Tot_abs_Q>
1

>  <i_f3d_flags>
0

>  <i_lp_mmshare_version>
64135

>  <i_m_source_file_index>
7

>  <b_lp_Chiralities_Consistent>
1

>  <r_epik_Charging_Adjusted_Penalty>
0.683006

>  <r_epik_Ionization_Penalty>
0.407534

>  <r_epik_Ionization_Penalty_Charging>
0.00274148

>  <r_epik_Ionization_Penalty_Neutral>
0.404793

>  <r_epik_State_Penalty>
0.680265

>  <r_lp_Energy>
22.0967

>  <s_epik_cmdline>
J2VwaWtfcHl0aG9uJywgJy1waHQnLCAnMC41JywgJy1waCcsICc3LjAnLCAnLXRuJywgJzgnLCAnLW1hJywgJzIwMCcsICctaW1hZScsICc8aW5maWxlLm1hZT4nLCAnLW9tYWUnLCAnPG91dGZpbGUubWFlPic=

>  <s_epik_input>
W0NIM11bQ0gyXVtDQEhdMVtDSDJdW0NASF0oW0NIMl1bTkhdMSlbTkhdW0NIMl1bQ0gyXVtPSF0=

>  <s_lp_Force_Field>
OPLS_2005

>  <s_lp_Variant>
m_271302____25517132____25492046	158.245	11	-0.291	3	3	4	1.000	44.290	True					True	M	HKYVXLURLQGUSW-JAMMHHFISA-N-2

>  <s_m_source_file>
2024.01_Enamine_REAL_DB_6.8M.smi

$$$$
m_270004____8289202____24722536	175.703	11	2.394	1	1	5	1.000	12.030	True						M	JIRDLQXLSDFJHB-UHFFFAOYSA-N
 OpenBabel01202514343D
Schrodinger Suite 2023-4.
 30 30  0  0  1  0  0  0  0  0999 V2000
   -2.1851    1.4268    0.0675 C   0  0  0  0  0  0  0  0  0  0  0  0
   -0.6530    1.4576    0.0871 C   0  0  0  0  0  0  0  0  0  0  0  0
   -0.0351    0.0548    0.0003 C   0  0  0  0  0  0  0  0  0  0  0  0
    1.4987    0.0844    0.0216 C   0  0  0  0  0  0  0  0  0  0  0  0
    2.0562   -1.2795   -0.0634 N   0  3  0  0  0  0  0  0  0  0  0  0
    3.5320   -1.3271   -0.0476 C   0  0  1  0  0  0  0  0  0  0  0  0
    4.1082   -2.7323   -0.2521 C   0  0  0  0  0  0  0  0  0  0  0  0
    5.1860   -2.0992   -1.1473 C   0  0  1  0  0  0  0  0  0  0  0  0
    5.7262   -2.8804   -2.3384 C   0  0  0  0  0  0  0  0  0  0  0  0
    6.8464   -1.8661   -3.2816 Cl  0  0  0  0  0  0  0  0  0  0  0  0
    4.1948   -0.9460   -1.3767 C   0  0  0  0  0  0  0  0  0  0  0  0
   -2.5946    2.4344    0.1405 H   0  0  0  0  0  0  0  0  0  0  0  0
   -2.5784    0.8473    0.9031 H   0  0  0  0  0  0  0  0  0  0  0  0
   -2.5591    0.9820   -0.8550 H   0  0  0  0  0  0  0  0  0  0  0  0
   -0.2960    2.0680   -0.7435 H   0  0  0  0  0  0  0  0  0  0  0  0
   -0.3158    1.9508    0.9995 H   0  0  0  0  0  0  0  0  0  0  0  0
   -0.3985   -0.5520    0.8310 H   0  0  0  0  0  0  0  0  0  0  0  0
   -0.3768   -0.4341   -0.9132 H   0  0  0  0  0  0  0  0  0  0  0  0
    1.8714    0.6784   -0.8139 H   0  0  0  0  0  0  0  0  0  0  0  0
    1.8517    0.5588    0.9382 H   0  0  0  0  0  0  0  0  0  0  0  0
    1.7131   -1.8092    0.7252 H   0  0  0  0  0  0  0  0  0  0  0  0
    3.9752   -0.8195    0.8115 H   0  0  0  0  0  0  0  0  0  0  0  0
    4.4894   -3.2072    0.6526 H   0  0  0  0  0  0  0  0  0  0  0  0
    3.4426   -3.3990   -0.8044 H   0  0  0  0  0  0  0  0  0  0  0  0
    6.0032   -1.7462   -0.5142 H   0  0  0  0  0  0  0  0  0  0  0  0
    6.2729   -3.7675   -2.0182 H   0  0  0  0  0  0  0  0  0  0  0  0
    4.9277   -3.2023   -3.0073 H   0  0  0  0  0  0  0  0  0  0  0  0
    4.6473    0.0461   -1.3939 H   0  0  0  0  0  0  0  0  0  0  0  0
    3.5530   -1.1088   -2.2448 H   0  0  0  0  0  0  0  0  0  0  0  0
    1.7264   -1.7148   -0.9131 H   0  0  0  0  0  0  0  0  0  0  0  0
  1  2  1  0  0  0  0
  1 12  1  0  0  0  0
  1 13  1  0  0  0  0
  1 14  1  0  0  0  0
  2  3  1  0  0  0  0
  2 15  1  0  0  0  0
  2 16  1  0  0  0  0
  3  4  1  0  0  0  0
  3 17  1  0  0  0  0
  3 18  1  0  0  0  0
  4  5  1  0  0  0  0
  4 19  1  0  0  0  0
  4 20  1  0  0  0  0
  5  6  1  0  0  0  0
  5 21  1  0  0  0  0
  5 30  1  0  0  0  0
  6  7  1  0  0  0  0
  6 11  1  0  0  0  0
  6 22  1  1  0  0  0
  7  8  1  0  0  0  0
  7 23  1  0  0  0  0
  7 24  1  0  0  0  0
  8  9  1  0  0  0  0
  8 11  1  0  0  0  0
  8 25  1  1  0  0  0
  9 10  1  0  0  0  0
  9 26  1  0  0  0  0
  9 27  1  0  0  0  0
 11 28  1  0  0  0  0
 11 29  1  0  0  0  0
M  CHG  1   5   1
M  END
>  <i_epik_Tot_Q>
1

>  <i_epik_Tot_abs_Q>
1

>  <i_f3d_flags>
0

>  <i_lp_mmshare_version>
64135

>  <i_m_source_file_index>
8

>  <b_lp_Chiralities_Consistent>
1

>  <r_epik_Charging_Adjusted_Penalty>
0.000213586

>  <r_epik_Ionization_Penalty>
0.000213586

>  <r_epik_Ionization_Penalty_Charging>
0.000213586

>  <r_epik_Ionization_Penalty_Neutral>
0

>  <r_epik_State_Penalty>
-0

>  <r_lp_Energy>
14.2395

>  <r_lp_tautomer_probability>
1

>  <s_epik_cmdline>
J2VwaWtfcHl0aG9uJywgJy1waHQnLCAnMC41JywgJy1waCcsICc3LjAnLCAnLXRuJywgJzgnLCAnLW1hJywgJzIwMCcsICctaW1hZScsICc8aW5maWxlLm1hZT4nLCAnLW9tYWUnLCAnPG91dGZpbGUubWFlPic=

>  <s_epik_input>
W0NIM11bQ0gyXVtDSDJdW0NIMl1bTkhdW0NASF0xW0NIMl1bQ0BASF0oW0NIMl1DbClbQ0gyXTE=

>  <s_lp_Force_Field>
OPLS_2005

>  <s_lp_Variant>
m_270004____8289202____24722536	175.703	11	2.394	1	1	5	1.000	12.030	True						M	JIRDLQXLSDFJHB-UHFFFAOYSA-N-1

>  <s_m_source_file>
2024.01_Enamine_REAL_DB_6.8M.smi

$$$$
m_282070____22187988____22150950	159.229	11	1.779	2	1	4	0.875	38.330	True						M	PXONPKCOJADKTQ-UHFFFAOYSA-N
 OpenBabel01202514343D
Schrodinger Suite 2023-4.
 28 27  0  0  1  0  0  0  0  0999 V2000
   -0.3796    1.1490    4.5167 C   0  0  0  0  0  0  0  0  0  0  0  0
   -0.7314    2.1479    3.4115 C   0  0  0  0  0  0  0  0  0  0  0  0
   -0.5474    1.5288    2.1492 O   0  0  0  0  0  0  0  0  0  0  0  0
   -0.8081    2.2141    1.0179 C   0  0  0  0  0  0  0  0  0  0  0  0
   -1.2088    3.3774    0.9861 O   0  0  0  0  0  0  0  0  0  0  0  0
   -0.5628    1.4262   -0.1021 N   0  0  0  0  0  0  0  0  0  0  0  0
   -0.0829    0.0456   -0.0890 C   0  0  0  0  0  0  0  0  0  0  0  0
    1.4430   -0.0217    0.1113 C   0  0  0  0  0  0  0  0  0  0  0  0
    2.0161   -1.4531    0.0805 C   0  0  0  0  0  0  0  0  0  0  0  0
    1.5879   -2.2799    1.3047 C   0  0  0  0  0  0  0  0  0  0  0  0
    3.5479   -1.4246   -0.0345 C   0  0  0  0  0  0  0  0  0  0  0  0
   -0.5156    1.5973    5.5009 H   0  0  0  0  0  0  0  0  0  0  0  0
    0.6585    0.8252    4.4365 H   0  0  0  0  0  0  0  0  0  0  0  0
   -1.0134    0.2635    4.4615 H   0  0  0  0  0  0  0  0  0  0  0  0
   -1.7664    2.4757    3.5174 H   0  0  0  0  0  0  0  0  0  0  0  0
   -0.0958    3.0311    3.4875 H   0  0  0  0  0  0  0  0  0  0  0  0
   -0.7364    1.8624   -0.9963 H   0  0  0  0  0  0  0  0  0  0  0  0
   -0.6137   -0.5281    0.6712 H   0  0  0  0  0  0  0  0  0  0  0  0
   -0.3452   -0.4054   -1.0463 H   0  0  0  0  0  0  0  0  0  0  0  0
    1.9146    0.5660   -0.6779 H   0  0  0  0  0  0  0  0  0  0  0  0
    1.7221    0.4589    1.0497 H   0  0  0  0  0  0  0  0  0  0  0  0
    1.6357   -1.9513   -0.8122 H   0  0  0  0  0  0  0  0  0  0  0  0
    1.9112   -1.8079    2.2331 H   0  0  0  0  0  0  0  0  0  0  0  0
    2.0223   -3.2796    1.2729 H   0  0  0  0  0  0  0  0  0  0  0  0
    0.5063   -2.4028    1.3519 H   0  0  0  0  0  0  0  0  0  0  0  0
    4.0012   -0.9345    0.8277 H   0  0  0  0  0  0  0  0  0  0  0  0
    3.8668   -0.8875   -0.9284 H   0  0  0  0  0  0  0  0  0  0  0  0
    3.9567   -2.4334   -0.0972 H   0  0  0  0  0  0  0  0  0  0  0  0
  1  2  1  0  0  0  0
  1 12  1  0  0  0  0
  1 13  1  0  0  0  0
  1 14  1  0  0  0  0
  2  3  1  0  0  0  0
  2 15  1  0  0  0  0
  2 16  1  0  0  0  0
  3  4  1  0  0  0  0
  4  5  2  0  0  0  0
  4  6  1  0  0  0  0
  6  7  1  0  0  0  0
  6 17  1  0  0  0  0
  7  8  1  0  0  0  0
  7 18  1  0  0  0  0
  7 19  1  0  0  0  0
  8  9  1  0  0  0  0
  8 20  1  0  0  0  0
  8 21  1  0  0  0  0
  9 10  1  0  0  0  0
  9 11  1  0  0  0  0
  9 22  1  0  0  0  0
 10 23  1  0  0  0  0
 10 24  1  0  0  0  0
 10 25  1  0  0  0  0
 11 26  1  0  0  0  0
 11 27  1  0  0  0  0
 11 28  1  0  0  0  0
M  END
>  <i_epik_Tot_Q>
0

>  <i_epik_Tot_abs_Q>
0

>  <i_f3d_flags>
0

>  <i_lp_mmshare_version>
64135

>  <i_m_source_file_index>
9

>  <b_lp_Chiralities_Consistent>
1

>  <r_epik_Charging_Adjusted_Penalty>
0

>  <r_epik_Ionization_Penalty>
1.92256e-05

>  <r_epik_Ionization_Penalty_Charging>
0

>  <r_epik_Ionization_Penalty_Neutral>
1.92256e-05

>  <r_epik_State_Penalty>
-0

>  <r_lp_Energy>
2.07569

>  <r_lp_tautomer_probability>
1

>  <s_epik_Chemistry_Notes>
This compound has an ester and may undergo hydrolysis at high or low pH.

>  <s_epik_cmdline>
J2VwaWtfcHl0aG9uJywgJy1waHQnLCAnMC41JywgJy1waCcsICc3LjAnLCAnLXRuJywgJzgnLCAnLW1hJywgJzIwMCcsICctaW1hZScsICc8aW5maWxlLm1hZT4nLCAnLW9tYWUnLCAnPG91dGZpbGUubWFlPic=

>  <s_epik_input>
W0NIM11bQ0gyXU9DKD1PKVtOSF1bQ0gyXVtDSDJdW0NIXShbQ0gzXSlbQ0gzXQ==

>  <s_lp_Force_Field>
OPLS_2005

>  <s_lp_Variant>
m_282070____22187988____22150950	159.229	11	1.779	2	1	4	0.875	38.330	True						M	PXONPKCOJADKTQ-UHFFFAOYSA-N-1

>  <s_m_source_file>
2024.01_Enamine_REAL_DB_6.8M.smi

$$$$
